ZINC03814457
     RDKit          3D

 30 31  0  0  1  0  0  0  0  0999 V2000
    3.7974    0.0736   -1.0031 C   0  0  0  0  0  0  0  0  0  0  0  0
    3.5942   -0.2790    0.4729 C   0  0  0  0  0  0  0  0  0  0  0  0
    3.9069    0.8654    1.3747 C   0  0  0  0  0  0  0  0  0  0  0  0
    2.2084   -0.7809    0.5944 C   0  0  0  0  0  0  0  0  0  0  0  0
    2.0602   -1.9177    1.0093 O   0  0  0  0  0  0  0  0  0  0  0  0
    1.0059   -0.0050    0.2504 C   0  0  0  0  0  0  0  0  0  0  0  0
   -0.1312   -0.7957    0.4905 O   0  0  0  0  0  0  0  0  0  0  0  0
   -1.4197   -0.3271    0.2563 C   0  0  0  0  0  0  0  0  0  0  0  0
   -2.5117   -1.0952    0.4902 C   0  0  0  0  0  0  0  0  0  0  0  0
   -3.7635   -0.5778    0.2397 C   0  0  0  0  0  0  0  0  0  0  0  0
   -4.6377   -1.5427    0.5566 N   0  0  0  0  0  0  0  0  0  0  0  0
   -3.9611   -2.6296    0.9915 C   0  0  0  0  0  0  0  0  0  0  0  0
   -2.6621   -2.3474    0.9476 N   0  0  0  0  0  0  0  0  0  0  0  0
   -3.8615    0.6805   -0.2317 N   0  0  0  0  0  0  0  0  0  0  0  0
   -2.7782    1.4456   -0.4648 C   0  0  0  0  0  0  0  0  0  0  0  0
   -1.5664    0.9218   -0.2138 N   0  0  0  0  0  0  0  0  0  0  0  0
   -2.9272    2.7878   -0.9697 N   0  0  0  0  0  0  0  0  0  0  0  0
    3.3310   -0.7589   -1.5859 H   0  0  0  0  0  0  0  0  0  0  0  0
    4.8507    0.2369   -1.2326 H   0  0  0  0  0  0  0  0  0  0  0  0
    3.1664    0.9750   -1.1854 H   0  0  0  0  0  0  0  0  0  0  0  0
    4.2924   -1.1114    0.6750 H   0  0  0  0  0  0  0  0  0  0  0  0
    4.6214    1.5799    0.8767 H   0  0  0  0  0  0  0  0  0  0  0  0
    3.0191    1.4490    1.6880 H   0  0  0  0  0  0  0  0  0  0  0  0
    4.4165    0.5494    2.3105 H   0  0  0  0  0  0  0  0  0  0  0  0
    0.9545    0.9887    0.7263 H   0  0  0  0  0  0  0  0  0  0  0  0
    1.0241    0.1931   -0.8598 H   0  0  0  0  0  0  0  0  0  0  0  0
   -5.6955   -1.4680    0.4794 H   0  0  0  0  0  0  0  0  0  0  0  0
   -4.3826   -3.5835    1.3256 H   0  0  0  0  0  0  0  0  0  0  0  0
   -2.1009    3.4128   -0.9218 H   0  0  0  0  0  0  0  0  0  0  0  0
   -3.8499    3.0604   -1.3542 H   0  0  0  0  0  0  0  0  0  0  0  0
  1  2  1  0
  1 18  1  0
  1 19  1  0
  1 20  1  0
  2  3  1  0
  2  4  1  0
  2 21  1  0
  3 22  1  0
  3 23  1  0
  3 24  1  0
  4  5  2  0
  4  6  1  0
  6  7  1  0
  6 25  1  0
  6 26  1  0
  7  8  1  0
  8 16  2  0
  8  9  1  0
  9 13  1  0
  9 10  2  0
 10 11  1  0
 10 14  1  0
 11 12  1  0
 11 27  1  0
 12 13  2  0
 12 28  1  0
 14 15  2  0
 15 16  1  0
 15 17  1  0
 17 29  1  0
 17 30  1  0
M  END
>  <id>  (1) 
ZINC03814457

>  <Cluster>  (1) 
1

>  <MODEL.SOURCE>  (1) 
CORINA 3.44 0027  09.01.2008

>  <MODEL.CCRATIO>  (1) 
1

>  <r_mmffld_Potential_Energy-OPLS_2005>  (1) 
-78.6454

>  <r_mmffld_RMS_Derivative-OPLS_2005>  (1) 
0.000213629

>  <b_mmffld_Minimization_Converged-OPLS_2005>  (1) 
1

$$$$
ZINC03814459
     RDKit          3D

 30 32  0  0  1  0  0  0  0  0999 V2000
   -3.3681   -2.1739   -1.9927 C   0  0  0  0  0  0  0  0  0  0  0  0
   -4.1724   -1.1751   -1.6066 N   0  0  0  0  0  0  0  0  0  0  0  0
   -3.3940   -0.3728   -0.8339 C   0  0  0  0  0  0  0  0  0  0  0  0
   -2.1236   -0.8871   -0.7547 C   0  0  0  0  0  0  0  0  0  0  0  0
   -2.1280   -2.0108   -1.4844 N   0  0  0  0  0  0  0  0  0  0  0  0
   -1.1494   -0.2186   -0.0053 C   0  0  0  0  0  0  0  0  0  0  0  0
   -1.4466    0.9056    0.6267 N   0  0  0  0  0  0  0  0  0  0  0  0
   -2.6921    1.4017    0.5439 C   0  0  0  0  0  0  0  0  0  0  0  0
   -3.6481    0.7714   -0.1749 N   0  0  0  0  0  0  0  0  0  0  0  0
   -2.9884    2.6077    1.2292 N   0  0  0  0  0  0  0  0  0  0  0  0
    0.1103   -0.7718    0.0453 O   0  0  0  0  0  0  0  0  0  0  0  0
    1.1022   -0.1047    0.7996 C   0  0  0  0  0  0  0  0  0  0  0  0
    2.3730   -0.9452    0.6675 C   0  0  0  0  0  0  0  0  0  0  0  0
    2.8037   -0.8116   -0.7957 C   0  0  0  0  0  0  0  0  0  0  0  0
    3.4552    0.5605   -0.7636 C   0  0  0  0  0  0  0  0  0  0  0  0
    3.8612    0.6970    0.6761 C   0  0  0  0  0  0  0  0  0  0  0  0
    3.4312   -0.4138    1.3554 O   0  0  0  0  0  0  0  0  0  0  0  0
   -3.6633   -3.0001   -2.6239 H   0  0  0  0  0  0  0  0  0  0  0  0
   -5.1842   -1.0185   -1.8336 H   0  0  0  0  0  0  0  0  0  0  0  0
   -2.4272    3.4875    1.1036 H   0  0  0  0  0  0  0  0  0  0  0  0
   -3.7887    2.6739    1.8979 H   0  0  0  0  0  0  0  0  0  0  0  0
    1.2602    0.8843    0.3097 H   0  0  0  0  0  0  0  0  0  0  0  0
    0.8161    0.0295    1.8481 H   0  0  0  0  0  0  0  0  0  0  0  0
    2.1447   -1.9746    0.9349 H   0  0  0  0  0  0  0  0  0  0  0  0
    1.8731   -0.7763   -1.4314 H   0  0  0  0  0  0  0  0  0  0  0  0
    3.4907   -1.6091   -1.0879 H   0  0  0  0  0  0  0  0  0  0  0  0
    2.7096    1.3479   -1.0489 H   0  0  0  0  0  0  0  0  0  0  0  0
    4.3167    0.5826   -1.4639 H   0  0  0  0  0  0  0  0  0  0  0  0
    3.4452    1.6095    1.1126 H   0  0  0  0  0  0  0  0  0  0  0  0
    4.9811    0.7049    0.6966 H   0  0  0  0  0  0  0  0  0  0  0  0
  1  5  2  0
  1  2  1  0
  1 18  1  0
  2  3  1  0
  2 19  1  0
  3  9  1  0
  3  4  2  0
  4  5  1  0
  4  6  1  0
  6  7  2  0
  6 11  1  0
  7  8  1  0
  8  9  2  0
  8 10  1  0
 10 20  1  0
 10 21  1  0
 11 12  1  0
 12 13  1  0
 12 22  1  0
 12 23  1  0
 13 17  1  0
 13 14  1  0
 13 24  1  0
 14 15  1  0
 14 25  1  0
 14 26  1  0
 15 16  1  0
 15 27  1  0
 15 28  1  0
 16 17  1  0
 16 29  1  0
 16 30  1  0
M  END
>  <id>  (2) 
ZINC03814459

>  <Cluster>  (2) 
2

>  <MODEL.SOURCE>  (2) 
CORINA 3.44 0027  09.01.2008

>  <MODEL.CCRATIO>  (2) 
1

>  <s_st_Chirality_1>  (2) 
13_S_17_12_14_24

>  <r_mmffld_Potential_Energy-OPLS_2005>  (2) 
-67.4705

>  <r_mmffld_RMS_Derivative-OPLS_2005>  (2) 
9.48919e-05

>  <b_mmffld_Minimization_Converged-OPLS_2005>  (2) 
1

$$$$
ZINC03814460
     RDKit          3D

 30 32  0  0  1  0  0  0  0  0999 V2000
    3.2265   -2.9270    0.6328 C   0  0  0  0  0  0  0  0  0  0  0  0
    4.1672   -2.0478    0.2443 N   0  0  0  0  0  0  0  0  0  0  0  0
    3.5976   -0.8640   -0.0645 C   0  0  0  0  0  0  0  0  0  0  0  0
    2.2430   -1.0466    0.1515 C   0  0  0  0  0  0  0  0  0  0  0  0
    2.0255   -2.3157    0.5792 N   0  0  0  0  0  0  0  0  0  0  0  0
    1.3576   -0.0336   -0.0662 C   0  0  0  0  0  0  0  0  0  0  0  0
    1.8439    1.1457   -0.4968 N   0  0  0  0  0  0  0  0  0  0  0  0
    3.1691    1.3114   -0.7041 C   0  0  0  0  0  0  0  0  0  0  0  0
    4.0697    0.3329   -0.4990 N   0  0  0  0  0  0  0  0  0  0  0  0
    3.5968    2.5927   -1.1602 N   0  0  0  0  0  0  0  0  0  0  0  0
   -0.0056   -0.2160    0.1507 O   0  0  0  0  0  0  0  0  0  0  0  0
   -0.9474    0.8173   -0.0668 C   0  0  0  0  0  0  0  0  0  0  0  0
   -2.3071    0.2603    0.2684 C   0  0  0  0  0  0  0  0  0  0  0  0
   -3.4351    1.1716   -0.0777 C   0  0  0  0  0  0  0  0  0  0  0  0
   -4.6037    0.2404   -0.2903 C   0  0  0  0  0  0  0  0  0  0  0  0
   -3.9616   -1.0721   -0.6183 C   0  0  0  0  0  0  0  0  0  0  0  0
   -4.5561   -2.1516   -0.8532 O   0  0  0  0  0  0  0  0  0  0  0  0
   -2.5447   -0.8750   -0.6160 N   0  0  0  0  0  0  0  0  0  0  0  0
    3.4580   -3.9526    0.9309 H   0  0  0  0  0  0  0  0  0  0  0  0
    5.2028   -2.2108    0.1750 H   0  0  0  0  0  0  0  0  0  0  0  0
    4.3861    3.1228   -0.7321 H   0  0  0  0  0  0  0  0  0  0  0  0
    3.1131    3.0397   -1.9567 H   0  0  0  0  0  0  0  0  0  0  0  0
   -0.7572    1.6960    0.5955 H   0  0  0  0  0  0  0  0  0  0  0  0
   -0.9718    1.1428   -1.1363 H   0  0  0  0  0  0  0  0  0  0  0  0
   -2.3043   -0.0945    1.3008 H   0  0  0  0  0  0  0  0  0  0  0  0
   -3.2035    1.7884   -0.9526 H   0  0  0  0  0  0  0  0  0  0  0  0
   -3.6078    1.8355    0.8159 H   0  0  0  0  0  0  0  0  0  0  0  0
   -5.2392    0.5359   -1.1424 H   0  0  0  0  0  0  0  0  0  0  0  0
   -5.1747    0.2031    0.6476 H   0  0  0  0  0  0  0  0  0  0  0  0
   -1.8373   -1.4291   -1.1380 H   0  0  0  0  0  0  0  0  0  0  0  0
  1  5  2  0
  1  2  1  0
  1 19  1  0
  2  3  1  0
  2 20  1  0
  3  9  1  0
  3  4  2  0
  4  5  1  0
  4  6  1  0
  6  7  2  0
  6 11  1  0
  7  8  1  0
  8  9  2  0
  8 10  1  0
 10 21  1  0
 10 22  1  0
 11 12  1  0
 12 13  1  0
 12 23  1  0
 12 24  1  0
 13 18  1  0
 13 14  1  0
 13 25  1  0
 14 15  1  0
 14 26  1  0
 14 27  1  0
 15 16  1  0
 15 28  1  0
 15 29  1  0
 16 17  2  0
 16 18  1  0
 18 30  1  0
M  END
>  <id>  (3) 
ZINC03814460

>  <Cluster>  (3) 
2

>  <MODEL.SOURCE>  (3) 
CORINA 3.44 0027  09.01.2008

>  <MODEL.CCRATIO>  (3) 
1

>  <s_st_Chirality_1>  (3) 
13_R_18_12_14_25

>  <r_mmffld_Potential_Energy-OPLS_2005>  (3) 
-89.4303

>  <r_mmffld_RMS_Derivative-OPLS_2005>  (3) 
5.17485e-05

>  <b_mmffld_Minimization_Converged-OPLS_2005>  (3) 
1

$$$$
